$ Basic wingbox mesh generated by mdo_agent_mesh
SOL 101
CEND
  SPC = 1
BEGIN BULK
MAT1,1,7.0E10,,0.33,2700.0
$HMNAME PROP 1 "RIBS/RIB.000/BAY.000"
PSHELL,1,1,0.010000
$HMNAME PROP 2 "RIBS/RIB.001/BAY.000"
PSHELL,2,1,0.010000
$HMNAME PROP 3 "RIBS/RIB.002/BAY.000"
PSHELL,3,1,0.010000
$HMNAME PROP 4 "RIBS/RIB.003/BAY.000"
PSHELL,4,1,0.010000
$HMNAME PROP 5 "RIBS/RIB.004/BAY.000"
PSHELL,5,1,0.010000
$HMNAME PROP 6 "RIBS/RIB.005/BAY.000"
PSHELL,6,1,0.010000
$HMNAME PROP 7 "RIBS/RIB.006/BAY.000"
PSHELL,7,1,0.010000
$HMNAME PROP 8 "RIBS/RIB.007/BAY.000"
PSHELL,8,1,0.010000
$HMNAME PROP 9 "SPARS/SPAR.000/BAY.000"
PSHELL,9,1,0.010000
$HMNAME PROP 10 "SPARS/SPAR.000/BAY.001"
PSHELL,10,1,0.010000
$HMNAME PROP 11 "SPARS/SPAR.000/BAY.002"
PSHELL,11,1,0.010000
$HMNAME PROP 12 "SPARS/SPAR.000/BAY.003"
PSHELL,12,1,0.010000
$HMNAME PROP 13 "SPARS/SPAR.000/BAY.004"
PSHELL,13,1,0.010000
$HMNAME PROP 14 "SPARS/SPAR.000/BAY.005"
PSHELL,14,1,0.010000
$HMNAME PROP 15 "SPARS/SPAR.000/BAY.006"
PSHELL,15,1,0.010000
$HMNAME PROP 16 "SPARS/SPAR.000/BAY.007"
PSHELL,16,1,0.010000
$HMNAME PROP 17 "SPARS/SPAR.001/BAY.000"
PSHELL,17,1,0.010000
$HMNAME PROP 18 "SPARS/SPAR.001/BAY.001"
PSHELL,18,1,0.010000
$HMNAME PROP 19 "SPARS/SPAR.001/BAY.002"
PSHELL,19,1,0.010000
$HMNAME PROP 20 "SPARS/SPAR.001/BAY.003"
PSHELL,20,1,0.010000
$HMNAME PROP 21 "SPARS/SPAR.001/BAY.004"
PSHELL,21,1,0.010000
$HMNAME PROP 22 "SPARS/SPAR.001/BAY.005"
PSHELL,22,1,0.010000
$HMNAME PROP 23 "SPARS/SPAR.001/BAY.006"
PSHELL,23,1,0.010000
$HMNAME PROP 24 "SPARS/SPAR.001/BAY.007"
PSHELL,24,1,0.010000
$HMNAME PROP 25 "U_SKIN/BAY.000/SEG.000"
PSHELL,25,1,0.010000
$HMNAME PROP 26 "U_SKIN/BAY.001/SEG.000"
PSHELL,26,1,0.010000
$HMNAME PROP 27 "U_SKIN/BAY.002/SEG.000"
PSHELL,27,1,0.010000
$HMNAME PROP 28 "U_SKIN/BAY.003/SEG.000"
PSHELL,28,1,0.010000
$HMNAME PROP 29 "U_SKIN/BAY.004/SEG.000"
PSHELL,29,1,0.010000
$HMNAME PROP 30 "U_SKIN/BAY.005/SEG.000"
PSHELL,30,1,0.010000
$HMNAME PROP 31 "U_SKIN/BAY.006/SEG.000"
PSHELL,31,1,0.010000
$HMNAME PROP 32 "U_SKIN/BAY.007/SEG.000"
PSHELL,32,1,0.010000
$HMNAME PROP 33 "L_SKIN/BAY.000/SEG.000"
PSHELL,33,1,0.010000
$HMNAME PROP 34 "L_SKIN/BAY.001/SEG.000"
PSHELL,34,1,0.010000
$HMNAME PROP 35 "L_SKIN/BAY.002/SEG.000"
PSHELL,35,1,0.010000
$HMNAME PROP 36 "L_SKIN/BAY.003/SEG.000"
PSHELL,36,1,0.010000
$HMNAME PROP 37 "L_SKIN/BAY.004/SEG.000"
PSHELL,37,1,0.010000
$HMNAME PROP 38 "L_SKIN/BAY.005/SEG.000"
PSHELL,38,1,0.010000
$HMNAME PROP 39 "L_SKIN/BAY.006/SEG.000"
PSHELL,39,1,0.010000
$HMNAME PROP 40 "L_SKIN/BAY.007/SEG.000"
PSHELL,40,1,0.010000
GRID,1,,0.217873570307,0.362492128366,0.033333318458
GRID,2,,0.246884489010,0.362492128366,0.034649352385
GRID,3,,0.275895407712,0.362492128366,0.035879816245
GRID,4,,0.304906326415,0.362492128366,0.037110280106
GRID,5,,0.333917245117,0.362492128366,0.037190793973
GRID,6,,0.362928163819,0.362492128366,0.036025286353
GRID,7,,0.391939082522,0.362492128366,0.034865779499
GRID,8,,0.420950001224,0.362492128366,0.033778321917
GRID,9,,0.449960919927,0.362492128366,0.032690864335
GRID,10,,0.478971838629,0.362492128366,0.031603406754
GRID,11,,0.507982757331,0.362492128366,0.030163247512
GRID,12,,0.536993676034,0.362492128366,0.027678718770
GRID,13,,0.566004594736,0.362492128366,0.025194190029
GRID,14,,0.595015513438,0.362492128366,0.022709661287
GRID,15,,0.624026432141,0.362492128366,0.020122561266
GRID,16,,0.653037350843,0.362492128366,0.017404755788
GRID,17,,0.682048269545,0.362492128366,0.014660290395
GRID,18,,0.711059188248,0.362492128366,0.011362002236
GRID,19,,0.740070106950,0.362492128366,0.008063714077
GRID,20,,0.769081025653,0.362492128366,0.004727233679
$ ... 2906 like lines cut
CQUAD4,1,1,1,2,23,22
CQUAD4,2,1,2,3,24,23
CQUAD4,3,1,3,4,25,24
CQUAD4,4,1,4,5,26,25
CQUAD4,5,1,5,6,27,26
CQUAD4,6,1,6,7,28,27
CQUAD4,7,1,7,8,29,28
CQUAD4,8,1,8,9,30,29
CQUAD4,9,1,9,10,31,30
CQUAD4,10,1,10,11,32,31
CQUAD4,11,1,11,12,33,32
CQUAD4,12,1,12,13,34,33
CQUAD4,13,1,13,14,35,34
CQUAD4,14,1,14,15,36,35
CQUAD4,15,1,15,16,37,36
CQUAD4,16,1,16,17,38,37
CQUAD4,17,1,17,18,39,38
CQUAD4,18,1,18,19,40,39
CQUAD4,19,1,19,20,41,40
CQUAD4,20,1,20,21,42,41
$ ... 3036 like lines cut
SPC,1,673,123456,0.0
SPC,1,680,123456,0.0
SPC,1,687,123456,0.0
SPC,1,694,123456,0.0
SPC,1,869,123456,0.0
SPC,1,876,123456,0.0
SPC,1,883,123456,0.0
SPC,1,890,123456,0.0
SPC,1,1065,123456,0.0
SPC,1,1066,123456,0.0
SPC,1,1067,123456,0.0
SPC,1,1068,123456,0.0
SPC,1,1069,123456,0.0
SPC,1,1070,123456,0.0
SPC,1,1071,123456,0.0
SPC,1,1072,123456,0.0
SPC,1,1073,123456,0.0
SPC,1,1074,123456,0.0
SPC,1,1075,123456,0.0
SPC,1,1076,123456,0.0
$ ... 26 like lines cut
ENDDATA
